  38
        -42.31414490
 C         -1.3465414688        1.1343800489       -0.0400927092
 H         -1.2862280101        2.2126646772        0.1263604487
 H         -2.3926205517        0.8865429132       -0.2358918380
 C         -0.8685910236        0.3937404626        1.2114459515
 C         -1.7301142392        0.7842768872        2.4130245354
 H         -1.3975791388        0.2623276405        3.3079607954
 H         -1.6665580060        1.8547118803        2.5975556578
 H         -2.7727678084        0.5288857759        2.2353390121
 C         -0.9667523263       -1.1135352206        0.9628146480
 H         -0.6328838998       -1.6544053270        1.8516532299
 H         -2.0083569130       -1.3878529271        0.7788282637
 C         -0.1086838623       -1.5193902162       -0.2381580369
 C         -0.2164903498       -3.0264109855       -0.4743787113
 H          0.1271861591       -3.5761618425        0.3994529982
 H         -1.2480965885       -3.3096704312       -0.6730620911
 H          0.3905334237       -3.3244150489       -1.3268090731
 C          1.3465392881       -1.1343756246        0.0400962321
 H          1.7076589685       -1.6754946292        0.9180627229
 H          1.9711807959       -1.4237105169       -0.8085202848
 C          1.4698854854        0.3726728378        0.2786903802
 C          2.9277946519        0.7423120868        0.5551113296
 H          3.5578438994        0.4718173774       -0.2897501097
 H          3.2943651311        0.2200906198        1.4364913145
 H          3.0253382349        1.8124452712        0.7260505741
 C          0.9667559069        1.1135298436       -0.9628120304
 H          1.0543171384        2.1915696502       -0.8072354704
 H          1.5869250328        0.8506818487       -1.8232441907
 C         -0.4926017102        0.7529801653       -1.2519744301
 C         -0.9811961795        1.4998219368       -2.4937613029
 H         -0.3797040260        1.2348496260       -3.3608930907
 H         -2.0183777531        1.2496326429       -2.7072591167
 H         -0.9121892957        2.5754868292       -2.3450895282
 C         -0.5948113894       -0.7581608523       -1.4740968100
 H          0.0069629037       -1.0430592092       -2.3405511438
 H         -1.6320344673       -1.0282907988       -1.6867925848
 C          0.5948122174        0.7581592848        1.4740920450
 H          0.9470711335        0.2393391469        2.3689556077
 H          0.6779903443        1.8320117820        1.6583828162
