66
 SCF done        -89.157347160991          0.000031546491
 C    1.771649   -0.021269   -0.007516
 C    0.890409   -0.900771    0.888593
 C    0.021155    1.772310   -0.015578
 C   -0.883292    0.916643    0.880544
 C   -1.772333    0.021819    0.007567
 C   -0.912842   -0.894296   -0.872903
 C   -0.007914   -0.014992   -1.744910
 C    0.904442    0.879404   -0.896299
 C   -0.021797   -1.771811    0.015456
 C    0.007328    0.015413    1.744879
 H   -0.578244    2.419794   -0.657799
 H    0.636100    2.416419    0.615263
 H   -2.413658    0.628400   -0.634110
 H   -2.422657   -0.569037    0.654824
 H    0.611245   -0.657598   -2.374530
 H   -0.632465    0.616442   -2.380468
 H   -0.631206   -2.404735    0.662759
 H    0.571975   -2.430497   -0.620607
 H    2.427483    0.580793    0.623651
 H    2.407445   -0.638882   -0.644126
 H    0.647197    0.642599    2.369334
 H   -0.627053   -0.600804    2.385605
 C    1.781051   -1.802256    1.730892
 C    2.644033   -2.693750    1.096893
 C    1.782371   -1.786484    3.120508
 C    2.610919   -2.626008    3.846893
 C    3.472223   -3.532912    1.817481
 C    3.460464   -3.503885    3.201120
 H    1.136045   -1.117855    3.665679
 H    2.677029   -2.740896    0.018523
 H    2.588849   -2.590112    4.926691
 H    4.130021   -4.212914    1.295597
 H    4.106205   -4.158190    3.767771
 C   -1.766580    1.832606    1.714945
 C   -1.756078    1.840386    3.104596
 C   -2.634797    2.713491    1.073313
 C   -3.456636    3.565036    1.786618
 C   -2.578250    2.692358    3.823691
 C   -3.433090    3.559466    3.170401
 H   -2.677068    2.742296   -0.005379
 H   -1.105214    1.180939    3.655517
 H   -4.118776    4.236278    1.258919
 H   -2.546957    2.674762    4.903716
 H   -4.073852    4.223494    3.731369
 C    1.809920    1.758571   -1.746349
 C    1.800060    1.741663   -3.135921
 C    2.699575    2.628965   -1.119947
 C    3.542938    3.446500   -1.847767
 C    2.643757    2.559526   -3.869541
 C    3.520010    3.416365   -3.231242
 H    2.741984    2.676279   -0.041913
 H    1.132973    1.089016   -3.675418
 H    4.221504    4.110321   -1.331674
 H    2.612500    2.523226   -4.949099
 H    4.177729    4.053610   -3.803530
 C   -1.825251   -1.788483   -1.699541
 C   -1.826034   -1.797346   -3.089221
 C   -2.709929   -2.647140   -1.050309
 C   -3.558638   -3.478119   -1.756362
 C   -2.675068   -2.628817   -3.801064
 C   -3.546196   -3.473765   -3.140292
 H   -2.744086   -2.674443    0.028711
 H   -1.163226   -1.154776   -3.645818
 H   -4.233128   -4.132266   -1.222865
 H   -2.651966   -2.612669   -4.881317
 H   -4.208016   -4.121690   -3.695609
