17
Properties=species:S:1:pos:R:3 energy:=T -23.214909667404=T gnorm:=T 0.000455128654=T xtb:=T 6.4.0=T (d4b70c2)=T pbc="F F F"
C        0.00000000       0.00000000       1.38640754
C        0.39270464      -1.40053622       3.41373315
C        0.35717765      -1.39326820       1.88855039
H       -0.37307225      -2.11416848       1.51637000
H        1.33626113      -1.66731534       1.48962115
H       -1.02385652       0.26794482       1.68140487
C        0.99434257       1.03806084       1.89129931
H       -0.60307162      -1.17139693       3.80071653
C        1.38801641      -0.36603877       3.93168441
H        0.66874173      -2.39524343       3.76753849
H        2.39271719      -0.62874972       3.59348591
H        1.39059773      -0.36777529       5.02325065
C        1.02798920       1.02475789       3.41660165
H        0.71198503       2.02515361       1.52052193
H        1.98229235       0.79730249       1.49276594
H        1.75554856       1.75599084       3.77290569
H        0.04745663       1.31221098       3.80323718
