4
Properties=species:S:1:pos:R:3 energy:=T -5.584891597355=T gnorm:=T 0.000001581530=T xtb:=T 6.3.0=T 007a174=T pbc="F F F"
C        0.00000000       0.00000000       1.44398858
H        0.25143830      -0.99498717       1.82854567
H       -0.98740330       0.27974165       1.82854568
H        0.73596503       0.71524554       1.82854564
