17
Properties=species:S:1:pos:R:3 Energy:=T 21.8088484=T pbc="F F F"
C       0.00000000       0.00000000       1.35582974
C      -0.65947097      -1.01729244       2.05315324
C       0.65945749       1.01727166       2.05273796
C       0.66430151       1.02474398       3.45076240
C       0.00625997       0.00965656       4.16202993
C      -0.66191380      -1.02106072       3.45669167
C      -1.32001187      -2.03623536       4.16827683
C       0.00386464       0.00596156       5.56546408
C      -0.65541040      -1.01102866       6.26238724
C      -1.31490158      -2.02835228       5.56641297
H      -1.83553447      -2.83147469       3.64302089
H      -1.82338077      -2.81272653       6.11204979
H       0.51058414       0.78762131       6.11888452
H      -0.65520057      -1.01070498       7.34474880
H       1.16844833       1.80243517       1.50858885
H       1.17971761       1.81981903       3.97635977
H      -1.16651460      -1.79945221       1.50056003
