11
Properties=species:S:1:pos:R:3 Energy:=T 10.6239320=T pbc="F F F"
C       0.00000000      -0.00000000       1.35579572
C       1.21146454      -0.02696493       2.05573397
C       0.00001754      -0.00000039       4.15422906
C      -1.21122780       0.02695966       3.45477581
C       1.21125243      -0.02696021       3.45476568
C      -1.21144569       0.02696451       2.05574453
H      -2.14828240       0.04781674       3.99604276
H      -2.14924689       0.04783821       1.51563709
H       0.00002269      -0.00000050       5.23656718
H       2.14830818      -0.04781731       3.99601681
H       2.14925363      -0.04783836       1.51561366
