14
Properties=species:S:1:pos:R:3 energy:=T -26.452239302680=T gnorm:=T 0.000367227256=T xtb:=T 6.4.1=T (afa7bdf)=T pbc="F F F"
C       -0.00000000       0.00000000       1.49796019
C        1.19112400      -0.02641991       2.21039364
C       -0.04601304       0.00108154       4.29104242
C       -1.24051286       0.02757687       3.58426950
C        1.14414512      -0.02535162       3.59070971
C       -1.20029744       0.02665163       2.19598477
C       -2.55672227       0.05679836       4.29951715
H       -2.12904827       0.04724960       1.64348195
H       -0.03055190       0.00075976       5.36961431
F        2.30653258      -0.05113863       4.28228532
H        2.14559243      -0.04761409       1.70806001
H       -3.15586769      -0.80989024       4.02390785
H       -3.11703416       0.94896453       4.02352789
H       -2.41561139       0.05390962       5.37671311
