15
Properties=species:S:1:pos:R:3 energy:=T -22.598471532358=T gnorm:=T 0.000031023300=T xtb:=T 6.3.0=T 007a174=T pbc="F F F"
C        0.00000000      -0.00000000       1.34315476
C       -1.21672209       0.02689052       2.10838710
C        1.22906207      -0.02716326       2.09110770
C        1.22230307      -0.02701364       3.45087222
C       -1.18334564       0.02615221       3.46817194
C        0.02495309      -0.00055147       4.19417228
C       -0.01620736       0.00036258       5.63419117
C        1.02884554      -0.02272862       6.46551101
H       -1.01330946       0.02239242       6.05812105
H        2.04874980      -0.04527627       6.12280388
H        0.89028226      -0.01967856       7.53249700
H       -2.11726625       0.04679396       4.01301797
H        2.15266523      -0.04757581       1.53453151
H        2.16851809      -0.04792578       3.96966628
H       -2.14946222       0.04750517       1.56746743
