26
 SCF done        -89.157347158505          0.000047922368
 C    1.771643   -0.021268   -0.007514
 C    0.890403   -0.900772    0.888595
 F    1.781050   -1.802256    1.730893
 C    0.021161    1.772310   -0.015572
 C   -0.883294    0.916636    0.880540
 F   -1.766582    1.832603    1.714945
 C   -1.772344    0.021820    0.007567
 C   -0.912843   -0.894290   -0.872897
 F   -1.825250   -1.788481   -1.699540
 C   -0.007909   -0.014999   -1.744911
 C    0.904437    0.879407   -0.896303
 F    1.809919    1.758572   -1.746350
 C   -0.021790   -1.771815    0.015447
 C    0.007335    0.015422    1.744882
 H   -0.578244    2.419791   -0.657799
 H    0.636099    2.416423    0.615263
 H   -2.413661    0.628400   -0.634110
 H   -2.422658   -0.569038    0.654825
 H    0.611246   -0.657599   -2.374533
 H   -0.632465    0.616440   -2.380466
 H   -0.631204   -2.404733    0.662758
 H    0.571977   -2.430502   -0.620608
 H    2.427482    0.580793    0.623651
 H    2.407445   -0.638880   -0.644127
 H    0.647198    0.642601    2.369339
 H   -0.627052   -0.600803    2.385602
