20
 energy: -48.169309748466 gnorm: 0.000633801819 xtb: 6.4.1 (afa7bdf)
N         1.67582084406075    0.00312520901113    0.00759398218286
C         0.83346155897334   -0.85332042756578    0.81069406598929
F         1.61660309450005   -1.67240864437415    1.55199676466561
N        -0.01529815807059    1.66206006473108   -0.00884611424406
C        -0.81226231765185    0.81943950787753    0.84209323633286
F        -1.57255217783748    1.57910381155514    1.66266983146613
N        -1.68022496334982    0.04470336694004   -0.01788810732438
C        -0.85452400005258   -0.82193613985595   -0.82780005436461
F        -1.65567278712526   -1.58699548705130   -1.60914989609504
N         0.00697336475824   -0.02832458740731   -1.68053029934053
C         0.82272808659893    0.81696647563244   -0.83072261968160
F         1.59970242352147    1.59919995908422   -1.61602015681899
N        -0.06622838664742   -1.69308786861554    0.01972391275327
N         0.06316886344456   -0.00088603478310    1.67421717443843
H         0.53576028162831    2.31727523421785    0.53694936319075
H        -2.38738184942389   -0.46724245972269    0.49908531701194
H        -0.53689850403126    0.52470853453842   -2.33610602747943
H         0.42745746111855   -2.39740543667602   -0.51908636127420
H         2.36471864625701   -0.51498314346632   -0.52750317701522
H        -0.43606948067106   -0.53346293406967    2.37890016560692
