14
 energy: -51.983008034391 gnorm: 0.000686005648 xtb: 6.4.1 (afa7bdf)
O         1.60840632999214   -0.02760394735523   -0.02231354854671
C         0.79496556212753   -0.82106166288415    0.77889737838542
F         1.55173534747893   -1.59113416109679    1.51967567580544
O         0.01550824101000    1.60162170888372    0.01130850170280
C        -0.78047737803759    0.78977287820083    0.81118927788082
F        -1.51811597760816    1.54873447828695    1.58216874588825
O        -1.61389529338662    0.00843914444641    0.01924405700790
C        -0.81821368790162   -0.79121174431098   -0.79410138877536
F        -1.59223018512064   -1.53248615058555   -1.54626149582544
O        -0.02332798588126    0.00362888937805   -1.61269012338392
C         0.79275659497529    0.78449152554718   -0.80227858678682
F         1.54770336791815    1.53779385313779   -1.56189482307021
O        -0.02078972606193   -1.62073298075767   -0.01449971337625
O         0.01767023561812   -0.02261262571211    1.60958776305332
