14
 energy: -45.901458344163 gnorm: 0.000515654409 xtb: 6.4.1 (afa7bdf)
Te        2.60316929273437   -0.03149059545366   -0.01105112627027
C         1.13706336438883   -1.15011637465683    1.14773494086111
F         1.93764493424453   -1.95973143060692    1.96140415230729
Te        0.03132126631922    2.60362470257515   -0.02287683141786
C        -1.12765351471060    1.17042707870170    1.13741795945994
F        -1.92115846187847    1.99414781439000    1.94383260874880
Te       -2.60374331742914    0.03194331339948    0.01110306607073
C        -1.16552219688825   -1.14205204787764   -1.12768071082329
F        -1.98573847426260   -1.94608030153203   -1.92721102269651
Te       -0.01161520326135   -0.02241441129539   -2.59579628822240
C         1.15495491560704    1.12255827066486   -1.15753421351726
F         1.96809025319033    1.91247882158198   -1.97808733616453
Te       -0.03191738847329   -2.60321200191152    0.02276175849944
Te        0.01104053041940    0.02280616202082    2.59576504316482
