20
 energy: -47.567846444303 gnorm: 0.000604167621 xtb: 6.4.1 (afa7bdf)
N         2.08598445702783   -0.00499110476348   -0.01451681620398
Ge        1.08227535062172   -1.16359742120315    0.95824778433422
F         2.09682219214845   -2.26733764859088    1.82285359425034
N        -0.05043967503526    2.05832685500352    0.05321000175545
Ge       -1.00373399657805    0.97274110639936    1.14967945108496
F        -1.95475038733256    1.88008498553333    2.27529038061913
N        -2.09056189732467    0.05759634571109    0.01561195587585
Ge       -1.11360125145615   -1.01511151472242   -1.07682117700922
F        -2.15983398121301   -1.95167814946482   -2.08856235654481
N         0.00371361411882   -0.00267911176414   -2.09637566041169
Ge        1.02227582414559    1.06595058811858   -1.02841718821447
F         2.00326584788571    2.10050797681711   -2.00939015276255
N        -0.10884368658465   -2.12307318166979   -0.04007891863294
N         0.14184230035694   -0.09807460154790    2.08191995092569
H         0.33112861270234    2.91202339995190    0.43528160312811
H        -2.99135333165893   -0.26386171374124    0.33744739487426
H        -0.37799319645783    0.40725985665290   -2.93732114865800
H         0.18450891458895   -3.00986500576604   -0.42298648694539
H         2.97605946707699   -0.30269970371039   -0.38524935478223
H        -0.14748317703225   -0.45499295724355    2.98044814331725
