14
 energy: -51.479579024910 gnorm: 0.000039362742 xtb: 6.3.0 (007a174)
O         1.99354585113103   -0.02497674241740   -0.00842444911912
Ge        1.02195295396641   -1.03411455340783    1.03500095111957
F         1.98158787766397   -2.00479843390275    2.00669994608926
O         0.02468143260960    1.99315461800407   -0.01759215816208
Ge       -1.01291413827667    1.05177177363704    1.02549985993156
F        -1.96421933639181    2.03929463599268    1.98835434769683
O        -1.99334761014488    0.02446736936372    0.00838570833289
Ge       -1.04735091591654   -1.02665479507541   -1.01681769356101
F        -2.03071074139180   -1.99042125683925   -1.97154910182929
O        -0.00858683131965   -0.01774720538564   -1.99353646382516
Ge        1.03853791749495    1.00808884654364   -1.04367038076385
F         2.01335267163528    1.95509166402249   -2.02355420458282
O        -0.02460453643694   -1.99360776573383    0.01762382987368
O         0.00869140537707    0.01723284519845    1.99356980879941
