14
 SCF done        -89.121147824598          0.000592448125
 S    2.630195   -0.033023   -0.011601
Ge    1.252495   -1.266334    1.292107
 F    2.411769   -2.440318    2.387453
 S    0.033312    2.631065   -0.022658
Ge   -1.240802    1.289084    1.279847
 F   -2.390722    2.481594    2.365116
 S   -2.630198    0.030595    0.012595
Ge   -1.283122   -1.257443   -1.270318
 F   -2.471441   -2.421675   -2.344801
 S   -0.010960   -0.023516   -2.678664
Ge    1.271963    1.235263   -1.302446
 F    2.450652    2.380088   -2.407936
 S   -0.032807   -2.629135    0.023586
 S    0.011042    0.022989    2.678102
