14
 energy: -46.322438525201 gnorm: 0.000013678973 xtb: 6.3.0 (007a174)
Se        2.92099562391922   -0.03636804767155   -0.01234407169595
Ge        1.24199955887783   -1.25667590049852    1.25786879957547
F         2.26220386353523   -2.28876866925459    2.29090599200221
Se        0.03603723556700    2.92063470735642   -0.02573625368809
Ge       -1.23107152301302    1.27815351696314    1.24638885729160
F        -2.24235132393876    2.32826851801586    2.26999486143047
Se       -2.92090439019903    0.03591281730602    0.01232575515545
Ge       -1.27277202985201   -1.24763441242782   -1.23579054652866
F        -2.31831344664229   -2.27230801536420   -2.25072454662017
Se       -0.01261203272012   -0.02582666395692   -2.92124987933170
Ge        1.26199468647035    1.22522869971564   -1.26842197390055
F         2.29863112101460    2.23188745915113   -2.31016490074025
Se       -0.03593515514346   -2.92109538670630    0.02571367744027
Se        0.01271381212445    0.02537237737171    2.92122422960990
