14
 energy: -45.812840427208 gnorm: 0.000009993262 xtb: 6.3.0 (007a174)
Te        3.12834631719957   -0.03893472990772   -0.01324417230078
Ge        1.29557389166910   -1.31086528476208    1.31199914969762
F         2.32871490440003   -2.35606517417324    2.35826859561730
Te        0.03862753364027    3.12804016219229   -0.02754661467554
Ge       -1.28416083148121    1.33329199283900    1.29999120625297
F        -2.30827517599712    2.39672117677286    2.33672431258677
Te       -3.12830442492338    0.03842646255019    0.01324964893546
Ge       -1.32769523866460   -1.30143650595558   -1.28897521100683
F        -2.38650079542002   -2.33913111572494   -2.31689706810356
Te       -0.01346856020043   -0.02767260210400   -3.12843218510310
Ge        1.31643839714376    1.27812515654986   -1.32301765631799
F         2.36624461389041    2.29754494316193   -2.37809915197892
Te       -0.03850835630013   -3.12843065846809    0.02754938958065
Te        0.01358372504376    0.02716717702950    3.12841975681596
