26
 energy: -45.043972839769 gnorm: 0.000658807312 xtb: 6.4.1 (afa7bdf)
C         2.18853369231013   -0.02638496780240   -0.00929223255204
Si        1.08278487814816   -1.09510962007303    1.09657060630406
F         2.01778915822249   -2.04067436590831    2.04498963362798
C         0.02622919055543    2.18900140534189   -0.01923322535395
Si       -1.07385176291060    1.11455835660356    1.08673852037362
F        -2.00060854197583    2.07656692110775    2.02667878488087
C        -2.18913545235765    0.02686444672289    0.00931200858170
Si       -1.10988587963691   -1.08754211169191   -1.07747247753011
F        -2.06779563170915   -2.02657618044601   -2.00937860829428
C        -0.00984071220019   -0.01885834712340   -2.18850987234320
Si        1.09975049909139    1.06896164528618   -1.10590061624079
F         2.04940869488103    1.99155276891069   -2.06235263632089
C        -0.02685455542222   -2.18856354083605    0.01914790354451
C         0.00924646493546    0.01927170122783    2.18847777168821
H        -0.58360338374493    2.84380029760926   -0.63748606765861
H         0.65185058717507    2.83964036470093    0.58752881111484
H        -2.83709624070704    0.64447169447146   -0.60842754730395
H        -2.84665116688241   -0.57485189380323    0.63261330521619
H         0.59483487641497   -0.64700367244230   -2.83872408140861
H        -0.62020239789577    0.59789828014766   -2.84429007342634
H        -0.64711825889998   -2.82845667031126    0.64260864793877
H         0.57758635400249   -2.85410864554493   -0.59289380198618
H         2.85135652476063    0.58608073600216    0.59770535896272
H         2.83118730526246   -0.65467187257577   -0.62178326010276
H         0.63454413982329    0.63242913414149    2.83347288737073
H        -0.61035938124034   -0.58251386371513    2.84947726091752
