20
 energy: -47.000214438825 gnorm: 0.000497477000 xtb: 6.4.1 (afa7bdf)
N         1.96895831475052   -0.03075310361583   -0.03846555077603
Si        1.03247782562254   -1.12142026799698    0.91368267907252
F         1.97505166715619   -2.13819893854378    1.72350405089830
N        -0.01811631392089    1.93357273791580    0.07555247754694
Si       -0.96180433570396    0.92583063783025    1.10422857626999
F        -1.84306531104972    1.77595758063904    2.14278870016420
N        -1.97448931922911    0.02407638499388    0.03851937994142
Si       -1.06655521653094   -0.97724919631723   -1.03099057346139
F        -2.03893090160170   -1.84436716094148   -1.96966161178215
N        -0.03376126254043    0.03156063463545   -1.97606678180947
Si        0.98283253049484    1.01652107033598   -0.98872304595941
F         1.89262109550494    1.97869722144465   -1.89665256879420
N        -0.07122361883400   -2.01214517751842   -0.07529956256117
N         0.10924464003964   -0.12145744149554    1.96668050070140
H         0.29590862289389    2.82727228282385    0.41007330587538
H        -2.90822249104869   -0.22692250600675    0.30915136334245
H        -0.36628016708767    0.39149033360686   -2.85366984377821
H         0.16676419918760   -2.93096770704093   -0.40461096172664
H         2.89503674750894   -0.27724519847689   -0.33803736706854
H        -0.10716470561198   -0.42772318627194    2.89826783390457
