14
 energy: -51.120995621195 gnorm: 0.000030244181 xtb: 6.3.0 (007a174)
O         1.84475195546254   -0.02305697340881   -0.00771126766050
Si        0.95758924455213   -0.96897084348940    0.96977450914119
F         1.85533968900931   -1.87722248397575    1.87934465706206
O         0.02277713259529    1.84437545507842   -0.01627802435443
Si       -0.94918803616240    0.98539110670877    0.96084905286460
F        -1.83929254863747    1.90972871939358    1.86168700576584
O        -1.84466344517510    0.02253224159478    0.00774681734531
Si       -0.98128145287351   -0.96202070488781   -0.95273487431000
F        -1.90134406814381   -1.86370997479789   -1.84640441765926
O        -0.00785525543802   -0.01646042036429   -1.84475490315500
Si        0.97304573249935    0.94457664452651   -0.97786173424496
F         1.88550434602896    1.83058301836136   -1.89471765730161
O        -0.02272181391363   -1.84488404789608    0.01630900331194
O         0.00795452019636    0.01591926315652    1.84474183319477
