14
 SCF done        -88.223405943642          0.000469447982
 S    2.516249   -0.031569   -0.010108
Si    1.201752   -1.216159    1.236084
 F    2.291329   -2.318564    2.276801
 S    0.030818    2.515629   -0.022929
Si   -1.191170    1.237008    1.224918
 F   -2.271513    2.357706    2.255704
 S   -2.516228    0.031487    0.010039
Si   -1.231726   -1.207891   -1.214347
 F   -2.348099   -2.301187   -2.236109
 S   -0.011860   -0.021812   -2.545378
Si    1.221768    1.185265   -1.246214
 F    2.328469    2.261304   -2.296367
 S   -0.030489   -2.516823    0.021836
 S    0.011316    0.022387    2.546060
