14
 energy: -45.434086374080 gnorm: 0.000013315863 xtb: 6.3.0 (007a174)
Se        2.75354567637876   -0.03428522967479   -0.01164541355488
Si        1.22092048262955   -1.23535154122616    1.23640881566781
F         2.13438634430721   -2.15945361154928    2.16146914953216
Se        0.03398590785055    2.75316166415278   -0.02424044774473
Si       -1.21021025539389    1.25648500367399    1.22515720669842
F        -2.11566612794369    2.19673725541023    2.14177925778089
Se       -2.75340916593304    0.03382235646820    0.01163568470549
Si       -1.25120771828768   -1.22649419072219   -1.21474515737367
F        -2.18734297630334   -2.14397593321516   -2.12359205396054
Se       -0.01186698047877   -0.02437526935011   -2.75358194271456
Si        1.24059784188900    1.20446066716110   -1.24681138097045
F         2.16879685470309    2.10577438634947   -2.17965715151685
Se       -0.03389263669323   -2.75363106388828    0.02424018602289
Se        0.01197875327549    0.02390650641022    2.75357324742802
