14
 energy: -44.822802522333 gnorm: 0.000016509419 xtb: 6.3.0 (007a174)
Te        3.03485275068225   -0.03778179387788   -0.01281512651690
Si        1.29476094599324   -1.31008407326307    1.31121897243391
F         2.22603195005580   -2.25218441176379    2.25431155140048
Te        0.03741294147402    3.03444955638781   -0.02676563272044
Si       -1.28340149191153    1.33246397319832    1.29925700560635
F        -2.20650430991679    2.29105359385115    2.23372406752228
Te       -3.03478596282650    0.03737827213711    0.01274931804642
Si       -1.32689810226314   -1.30068869878665   -1.28817388145030
F        -2.28127760277866   -2.23600672844084   -2.21477525566616
Te       -0.01314106151293   -0.02679362548768   -3.03485047386232
Si        1.31568460441259    1.27735045380239   -1.32223569186441
F         2.26193539845966    2.19623607884627   -2.27328972096085
Te       -0.03729519719541   -3.03501105036694    0.02667777055065
Te        0.01324113732739    0.02639945376381    3.03495709748130
