20
 energy: -46.456140708769 gnorm: 0.000284539345 xtb: 6.4.1 (afa7bdf)
S         2.87459718074002   -0.01791745400727    0.00930869809797
Sn        1.22185456602440   -1.23507407329106    1.34867041093015
F         2.23570609450695   -2.25661644516845    2.69830125394350
C        -0.13894411580697    2.40446760847129    0.15444444211335
Si       -1.20009598219695    1.24566081301746    1.22063477143081
F        -2.11827680574577    2.19903350986705    2.15094282069813
C        -2.39851138557011    0.20016028627901    0.18322309212232
Sn       -1.35981798282899   -1.22528717840583   -1.20939157670286
F        -2.72245298430263   -2.23718922805749   -2.21545393445437
S        -0.03037422358114   -0.00634352811186   -2.86958549352100
Sn        1.24213693387427    1.31281232052144   -1.24269000537473
F         2.27395107995257    2.63706983144629   -2.27937425428795
S        -0.05283695463297   -2.87421849884919    0.04700213351444
C        -0.15615031060113    0.19129798459903    2.40555569820694
H        -3.04041646697900   -0.42434246010773    0.80274784447650
H        -3.03066113718969    0.81397772511833   -0.45669346602765
H        -0.77233378522088   -0.43335177308513    3.05053540261121
H         0.49199380626047    0.79991473639335    3.03435139422520
H        -0.74508415535858    3.04345489881313   -0.48601802963230
H         0.50962662865624    3.03848092455761    0.75717879763032
