20
 energy: -46.062809955983 gnorm: 0.000085049938 xtb: 6.4.1 (afa7bdf)
Te        3.27863772521398    0.05722596846376    0.08643548421460
Sn        1.25982708956411   -1.27341174893909    1.40413116496537
F         2.15551553422169   -2.17143826884651    2.92258082592812
C        -0.12081178181392    2.38079112987893    0.13632374071693
Si       -1.17911312175605    1.22418151632888    1.19965658372542
F        -2.09805092619803    2.17825747716164    2.13102421176412
C        -2.37526741110317    0.18147080190050    0.16508632729282
Sn       -1.41601348141984   -1.26238169746718   -1.24712507753366
F        -2.94609279230454   -2.15089178596346   -2.13248696127572
Te       -0.11163260780941    0.07084339843314   -3.27286644371746
Sn        1.28010335055734    1.36746109512352   -1.28161911916100
F         2.19417132515726    2.86378581161586   -2.19814528518409
Te       -0.13726368964305   -3.27523937174138    0.13013426172924
C        -0.13785679911438    0.17234875891037    2.38196185029794
H        -3.02168347568895   -0.41903308446647    0.80318945548741
H        -3.01221100542263    0.81438288280472   -0.45083348529198
H        -0.77248134896016   -0.42805442233136    3.03188587963073
H         0.48655460505968    0.80014083710963    3.01570024590207
H        -0.74592045939926    3.02528303001190   -0.47971281713923
H         0.50349927085949    3.02026767201201    0.75836915764847
