26
 energy: -46.236240951679 gnorm: 0.000352995404 xtb: 6.4.1 (afa7bdf)
C         2.55775958753166   -0.03089553223778   -0.01089031279705
Sn        1.24028548959047   -1.25436645843573    1.25596458201861
F         2.37115055777620   -2.39800138411026    2.40106250225643
C         0.03071972095847    2.55821145928514   -0.02244480443672
Sn       -1.22998816362385    1.27659618688800    1.24468589615513
F        -2.35090661925819    2.44008983676921    2.37951199393966
C        -2.55836787549632    0.03134781937356    0.01086973212748
Sn       -1.27122685069936   -1.24572322147034   -1.23407924160279
F        -2.42975330135017   -2.38147110505375   -2.35920117050840
C        -0.01145439854305   -0.02206841338899   -2.55812962289002
Sn        1.25971479154175    1.22438271604338   -1.26663623045188
F         2.40829762597868    2.34026646807793   -2.42143777924277
C        -0.03133088404319   -2.55776640057125    0.02240019983665
C         0.01084970912698    0.02250666439737    2.55809705347697
H        -0.59075496087508    3.19280219846171   -0.65178377619158
H         0.66752726172444    3.18849296666971    0.59579855972999
H        -3.18595791417025    0.65997517829695   -0.61838531536659
H        -3.19568620349606   -0.58189173592497    0.64550835665943
H         0.60461099979437   -0.66160690239709   -3.18778045178209
H        -0.63302998342800    0.60644314445741   -3.19344303287735
H        -0.66267674834676   -3.17712826584459    0.65706297902171
H         0.58467680307955   -3.20327699989621   -0.60118161437047
H         3.20053192776087    0.59326390860534    0.60739163165143
H         3.17989637563403   -0.67043319174311   -0.63454161249356
H         0.64762542586164    0.64679553490626    3.18242571156350
H        -0.62041337302885   -0.59076247115788    3.19873276657429
