20
 energy: -47.929171719469 gnorm: 0.000479912042 xtb: 6.4.1 (afa7bdf)
N         2.31097382327188    0.05537420063682    0.02449967591379
Sn        1.23833395727089   -1.30438351056089    1.07300357866728
F         2.35262992592433   -2.55864787849219    2.00239633578076
N        -0.11630146200610    2.29061678952884    0.03279885543349
Sn       -1.13460617868042    1.09275071055984    1.29734815798088
F        -2.18454039770421    2.06700532613317    2.56776086395280
N        -2.31159664851020    0.12230334853163   -0.03446906162825
Sn       -1.26335275076847   -1.13698797586626   -1.22397450921153
F        -2.40991519990826   -2.18325342313907   -2.34819562528227
N         0.07131549864710   -0.05691403073353   -2.30797460431839
Sn        1.14466319503970    1.22075847306311   -1.15133238844242
F         2.22108108795701    2.36012183641683   -2.24881752618781
N        -0.19014574203037   -2.31517663919567    0.01720314867381
N         0.22353582164338   -0.07091668144448    2.29059922866377
H         0.34095461387194    3.07909319243973    0.48372868175978
H        -3.16935532884252   -0.27004974647764    0.34116957728081
H        -0.33574458768105    0.38275055566186   -3.12885475810753
H         0.12258701395319   -3.19018831148915   -0.39119420605817
H         3.14680439316355   -0.29746071445092   -0.43126764756950
H        -0.12803903461138   -0.49026652112203    3.14584322269872
