14
 energy: -51.765467628536 gnorm: 0.000034388377 xtb: 6.3.0 (007a174)
O         2.17305235760814   -0.02709850516570   -0.00918739448619
Sn        1.16173860008352   -1.17546638431113    1.17653981263252
F         2.22195806967736   -2.24806420712885    2.24997441411199
O         0.02682470083786    2.17272380594419   -0.01914695887037
Sn       -1.15149435966029    1.19551625717768    1.16579221258102
F        -2.20245753529388    2.28682840540667    2.22942495754064
O        -2.17297228127275    0.02663540802238    0.00918250721194
Sn       -1.19052366395237   -1.16702466363123   -1.15589900075964
F        -2.27708728213656   -2.23190980523465   -2.21050473960983
O        -0.00937234497047   -0.01926206646182   -2.17316297601291
Sn        1.18045100402455    1.14606168314820   -1.18642925222812
F         2.25777053524824    2.19221152655274   -2.26890189026656
O        -0.02673297307665   -2.17317288550863    0.01913858177509
O         0.00946117288330    0.01880243119014    2.17316972638042
