14
 SCF done        -89.742673408444          0.000921025232
 S    2.813490   -0.034075   -0.011603
Sn    1.379164   -1.393917    1.417705
 F    2.661046   -2.693075    2.615847
 S    0.034394    2.811402   -0.025847
Sn   -1.365851    1.419389    1.405840
 F   -2.638566    2.738260    2.592036
 S   -2.811090    0.035035    0.012144
Sn   -1.412388   -1.384688   -1.394346
 F   -2.727250   -2.672162   -2.569144
 S   -0.012969   -0.023591   -2.866324
Sn    1.401127    1.359207   -1.429743
 F    2.704715    2.626262   -2.638754
 S   -0.036083   -2.813023    0.026467
 S    0.011495    0.023923    2.865335
