14
 energy: -46.491280518581 gnorm: 0.000041335817 xtb: 6.3.0 (007a174)
Te        3.33267023226008   -0.04158062641702   -0.01420683228501
Sn        1.41711566846134   -1.43384909269643    1.43524324352094
F         2.54768654704506   -2.57758878008490    2.58016867502096
Te        0.04111491067466    3.33250781634833   -0.02935577589133
Sn       -1.40465390280001    1.45835207778232    1.42198658802163
F        -2.52527674450156    2.62206246990337    2.55655346615571
Te       -3.33286436165188    0.04103435011009    0.01405053655747
Sn       -1.45240661640320   -1.42354929020076   -1.40990726911800
F        -2.61091214888082   -2.55907064285045   -2.53492707594504
Te       -0.01427002134895   -0.02955620394335   -3.33262792613071
Sn        1.44000444039461    1.39819270559911   -1.44719731202744
F         2.58876282407405    2.51363381788620   -2.60190047143582
Te       -0.04086836920687   -3.33281709542764    0.02919998894821
Te        0.01451354188349    0.02900949399112    3.33291016460841
